PHYSICAL_PROBLEM=EULER                    % Physical governing equations(EULERNAVIER_STOKESBALDWIN_LOMAXSPALART_ALLMARASSST_K_OMEGA)
SIMULATION_KIND=STEADY                    % simulation strategy(STEADY OR UNSTEADY / DT_STEPPING_2ND / DT_STEPPING_1ST)
GRID_MOVE=NO                    
ROTATING_FRAME=NO                    
ROTATING_FRAME_ANG_VEL=(0.0,0.0,0.0)                    
ROTATING_FRAME_REF_PT=(0.0,0.0,0.0)                    
MACH_MOTION=1.0                    
MACH_NUMBER=2                    %Mach number(non - dimensional)
AOA=10                    % Angle of attack(degrees)
AOS=0                    % Angle of sideslip(degrees)
SPAN_WISE=Z_SPANWISE                    %SPAN_WISE equations(Y_SPANWISE  Z_SPANWISE)
FREESTREAM_PRESSURE=10147.68                    % Free_stream pressure(101325.0 N / m ^ 2 by default)
FREESTREAM_TEMPERATURE=188.33                    % Free_stream temperature(273.15 K by default)
GAMMA_VALUE=1.4                    %Ratio of specific heats(1.4 (air))
GAS_CONSTANT=287.87                    %Specific gas constant(287.87 J / kg * K(air))
CFL_NUMBER=2.1                    %Courant - Friendrichs - Lewy conditions
EXT_ITER=20                    % Number of total iterations
START_CONVERGE_EVAI_TER=10                    % Number of save interval
CONV_CRITERIA=RESIDUAL                    % CONV_CRITERIA equations(RESIDUAL(default)  CAUCHY)
CONVERGENCE_LIMIT=4                     %convergence criterion
RESIDUAL_MINVAL=-8                    % Min value of the residual(log10 of the residual)
AUTO_SAVE_STEP=100                    % Number of iterations intervals between two save actions
MG_NUM_LEVELS=2                    
MULTI_GRID_CYCLE=V_CYCLE                    % V_CYCLE  W_CYCLE  FULLMG_CYCLE
CENT_PARA_PARTID=(0,1,2,3,4)                    
CENT_PARA_X=(0.0,0.0,0.0,0.0,0.0)                    
CENT_PARA_Y=(0.0,0.0,0.0,0.0,0.0)                    
CENT_PARA_Z=(0.0,0.0,0.0,0.0,0.0)                    
REF_PART_ID=(0,1,2,3,4)                    
REF_AREA=(1.0,1.0,1.0,1.0,1.0)                    
REF_LENGTH=(1.0,1.0,1.0,1.0,1.0)                    
REF_SPAN=(1.0,1.0,1.0,1.0,1.0)                    
TIME_EVOLUTE_MODE=RUNGE_KUTTA_EXPLICIT                    % (RUNGE_KUTTA_EXPLICIT  EULER_EXPLICIT)
PRECONDITION_MODE=NONE                    % precondition mode(NONE / WS95)
SPACE_CONV_SCHEMA=CENT_JST                    % convection schema : AUSM_PLUS / AUSM_PLUS_UP
LUSGS_SWEEPS=5                    % (Lusgs sub iteration sweeps)
LIMITER_COEFF=0.05                    % the coefficience in 2ND_limieter(valid  when 2ND_LIMETER is used)
SPATIAL_ORDER=2ND_ORDER_LIMITER                    % spational order(1ST_ORDER / 2ND_ORDER_LIMITER)
GRADIENT_METHOD=GREEN_GAUSS                    % GREEN_GAUSS(default) / WEIGHTED_LEAST_SQUARES
RESTART_SOL=NO                    % Restart solution(NO, YES)
INlET_PRESSURE=101325                    % Inlet_stream pressure(101325.0 N / m ^ 2 by default)
INlET_TEMPERATURE=288.15                    % Inlet_stream temperature(273.15 K by default)
OUTlET_PRESSURE=101325                    % Outlet_stream pressure(101325.0 N / m ^ 2 by default)
OUTlET_TEMPERATURE=288.15                    % Outlet_stream temperature(273.15 K by default)
LAMINAR_VISC_MODEL=SUTHERLAND                    % Laminar Viscosity model(CONSTANT_VISCOSITY / SUTHERLAND)
SUTHERLAND_MU_REF=1.716E-05                     %Mu reference in Ns / m2 water : 1.01e-3
SUTHERLAND_T_REF=273.15                    %T reference in K
SUTHERLAND_S_CONST=110.555                    %sutherland const in K
MU_CONST=1.716E-05                    %const laminar viscosity in Ns / m2(Pa*s)
THERMAL_COND_MODEL=CONSTANT_PRANDTL                    % CONSTANT_CONDUCTIVITY  CONSTANT_PRANDTL
THERMAL_COND_CONST=0.0257                    %0.0257
PRANDTL_CONST=0.72                    %air laminar Prandtl num
MESH_FILENAME=Mesh/Mesh.dat                     %Mesh input file testNewSolverFile_pinban.bat testNewSolverFile.dat
RESTART_FILENAME=restartFlowFile.dat                    %Restart flow output file
MESH_RELATION_FILENAME=Mesh/MultiGridRelation.ini
FLOW_RESULT_FILENAME=check/FlowResult_tecplot.cgns                    
OUTPUT_FORMAT=CGNS                    % Output file format(TECPLOT, PARAVIEW, TECPLOT_BINARY)
NON_DIM_STRATEGY=DIMENSIONAL                    % Flow non - dimensionalization(DIMENSIONAL, FREESTREAM_PRESS_EQ_ONE, FREESTREAM_VEL_EQ_MACH, FREESTREAM_VEL_EQ_ONE)
GHOST_INTERPOLATE_MODE=INTER_PARENT                    % INTER_PARENT or INTER_MODE_1
DEBUG=NO                    % Is Debuging the Solver ? (NO, YES)
DEBUG_CELL_ID=0                    % Which cell is going to be debugged ?
DEBUG_FLUX=0                    % Whice Flux is going to be debugged ? 0 : rho 1~ndim : rho * vel ndim + 1 : rho * E
INITIALIZE_FLOW_MODE=FREESTREAM_PARAMS                    % FREESTREAM_PARAMS(use params of freestream) / FREESTREAM_PARAMS_AND_VEL_ZERO(use params of freestream and set vel to zero / SOD)
GRID_LENGTH_REF=1                    % means the params of gird file is been nondimensionalized using GRID_LENGTH_REF.the default value is 1.0
HAVE_GRID_MOVEMENT=NO                    % means have moving_wall
HAVE_ISOTHERMAL_WALL=NO                    % means have isothermal wall
UNST_INT_ITER_NUM=12                    % Number of internal iterations(Dual time Method)
UNST_TIME_STEP=0.000015                    %  Time step for unsteady computations
UNST_BEGIN_TIME=0                    
UNST_TOTAL_TIME=0.2                    % Total time for unsteady computations
SMOOTH_ITE_NUM=0                    % the num of residual smooth iterations
SMOOTH_COEFF=0.25                    % the coeffcient of residual smooth iterations
RESULT_SOL_SMOOTH=NO                    % result solution smooth(YES / NO)
SLOPE_LIMIT_KIND=VENKATAKRISHNAN                    % limiter strategy(VENKATAKRISHNAN(default) / BARTH_JESPERSEN)
MG_NUM_START_UP_ITER=0                    
MG_NUM_PRESMOOTH=(1,1,1)                    
MG_NUM_POSTSMOOTH=(0,0,0)                    
MG_NUM_SMOOTH=(0,0,0)                    
DAMP_FACTOR_CORRECT=0.95                    
DAMP_FACTOR_RESTRICT=0.95                    
CHECK_GRID_MODE=255                    % 1:CHECKGRIDCLOSE 2 : CHECKGRIDLINK 4 : CHECKGRIDFACEVECTOR 8 : CHECKGRIDFACECELLPOINTERINFO 16 : CHECKGRIDWALLDIS
 % 32 : CHECKGRIDCLONECELLGEOMETRY 64 : CHECKGRIDGHOSTINFOWITHPARENT 128 : CHECKGRIDMULTIGRIDLINK 256 : CHECKGRIDCELLVOLUMN
IF_USED_BOOST=1                    
IF_USED_MERGE=YES                    
IS_COUNT_FRIC=NO                    
ITE_NUM_NO_MG=-1                    
ITE_PROP_NO_MG=1                    
